/*--------------------------------*- C++ -*----------------------------------*\
| =========                 |                                                 |
| \\      /  F ield         | OpenFOAM: The Open Source CFD Toolbox           |
|  \\    /   O peration     | Version:  2406                                  |
|   \\  /    A nd           | Website:  www.openfoam.com                      |
|    \\/     M anipulation  |                                                 |
\*---------------------------------------------------------------------------*/
FoamFile
{
    version     2.0;
    format      binary;
    arch        "LSB;label=32;scalar=64";
    class       polyBoundaryMesh;
    location    "constant/polyMesh";
    object      boundary;
}
// * * * * * * * * * * * * * * * * * * * * * * * * * * * * * * * * * * * * * //

8
(
    top
    {
        type            patch;
        nFaces          62;
        startFace       21037;
    }
    bottom
    {
        type            patch;
        nFaces          63;
        startFace       21099;
    }
    inlet
    {
        type            patch;
        nFaces          50;
        startFace       21162;
    }
    outlet
    {
        type            patch;
        nFaces          0;
        startFace       21212;
    }
    back
    {
        type            empty;
        inGroups        1(empty);
        nFaces          10625;
        startFace       21212;
    }
    front
    {
        type            empty;
        inGroups        1(empty);
        nFaces          10625;
        startFace       31837;
    }
    cylinder
    {
        type            patch;
        nFaces          200;
        startFace       42462;
    }
    procBoundary0to1
    {
        type            processor;
        inGroups        1(processor);
        nFaces          51;
        startFace       42662;
        matchTolerance  0.0001;
        transform       unknown;
        myProcNo        0;
        neighbProcNo    1;
    }
)

// ************************************************************************* //
