/*--------------------------------*- C++ -*----------------------------------*\
| =========                 |                                                 |
| \\      /  F ield         | OpenFOAM: The Open Source CFD Toolbox           |
|  \\    /   O peration     | Version:  2406                                  |
|   \\  /    A nd           | Website:  www.openfoam.com                      |
|    \\/     M anipulation  |                                                 |
\*---------------------------------------------------------------------------*/
FoamFile
{
    version     2.0;
    format      binary;
    arch        "LSB;label=32;scalar=64";
    class       polyBoundaryMesh;
    location    "constant/polyMesh";
    object      boundary;
}
// * * * * * * * * * * * * * * * * * * * * * * * * * * * * * * * * * * * * * //

8
(
    top
    {
        type            patch;
        nFaces          213;
        startFace       20987;
    }
    bottom
    {
        type            patch;
        nFaces          212;
        startFace       21200;
    }
    inlet
    {
        type            patch;
        nFaces          0;
        startFace       21412;
    }
    outlet
    {
        type            patch;
        nFaces          50;
        startFace       21412;
    }
    back
    {
        type            empty;
        inGroups        1(empty);
        nFaces          10625;
        startFace       21462;
    }
    front
    {
        type            empty;
        inGroups        1(empty);
        nFaces          10625;
        startFace       32087;
    }
    cylinder
    {
        type            patch;
        nFaces          0;
        startFace       42712;
    }
    procBoundary1to0
    {
        type            processor;
        inGroups        1(processor);
        nFaces          51;
        startFace       42712;
        matchTolerance  0.0001;
        transform       unknown;
        myProcNo        1;
        neighbProcNo    0;
    }
)

// ************************************************************************* //
